[Format]      =  4.0
[Frequency]   =  0
[Precision]   =  1e-008
[MinAngle]    =  30
[DoSmartMesh] =  1
[Depth]       =  20
[LengthUnits] =  millimeters
[ProblemType] =  planar
[Coordinates] =  cartesian
[ACSolver]    =  0
[PrevType]    =  0
[PrevSoln]    =  ""
[Comment]     =  "Add comments here."
[PointProps]   = 0
[BdryProps]   = 8
  <BeginBdry>
    <BdryName> = "A=0"
    <BdryType> = 0
    <A_0> = 0
    <A_1> = 0
    <A_2> = 0
    <Phi> = 0
    <c0> = 0
    <c0i> = 0
    <c1> = 0
    <c1i> = 0
    <Mu_ssd> = 0
    <Sigma_ssd> = 0
    <innerangle> = 0
    <outerangle> = 0
  <EndBdry>
  <BeginBdry>
    <BdryName> = "apbc1"
    <BdryType> = 5
    <A_0> = 0
    <A_1> = 0
    <A_2> = 0
    <Phi> = 0
    <c0> = 0
    <c0i> = 0
    <c1> = 0
    <c1i> = 0
    <Mu_ssd> = 0
    <Sigma_ssd> = 0
    <innerangle> = 0
    <outerangle> = 0
  <EndBdry>
  <BeginBdry>
    <BdryName> = "apbc2"
    <BdryType> = 5
    <A_0> = 0
    <A_1> = 0
    <A_2> = 0
    <Phi> = 0
    <c0> = 0
    <c0i> = 0
    <c1> = 0
    <c1i> = 0
    <Mu_ssd> = 0
    <Sigma_ssd> = 0
    <innerangle> = 0
    <outerangle> = 0
  <EndBdry>
  <BeginBdry>
    <BdryName> = "apbc3"
    <BdryType> = 5
    <A_0> = 0
    <A_1> = 0
    <A_2> = 0
    <Phi> = 0
    <c0> = 0
    <c0i> = 0
    <c1> = 0
    <c1i> = 0
    <Mu_ssd> = 0
    <Sigma_ssd> = 0
    <innerangle> = 0
    <outerangle> = 0
  <EndBdry>
  <BeginBdry>
    <BdryName> = "apbc4"
    <BdryType> = 5
    <A_0> = 0
    <A_1> = 0
    <A_2> = 0
    <Phi> = 0
    <c0> = 0
    <c0i> = 0
    <c1> = 0
    <c1i> = 0
    <Mu_ssd> = 0
    <Sigma_ssd> = 0
    <innerangle> = 0
    <outerangle> = 0
  <EndBdry>
  <BeginBdry>
    <BdryName> = "apbc5"
    <BdryType> = 5
    <A_0> = 0
    <A_1> = 0
    <A_2> = 0
    <Phi> = 0
    <c0> = 0
    <c0i> = 0
    <c1> = 0
    <c1i> = 0
    <Mu_ssd> = 0
    <Sigma_ssd> = 0
    <innerangle> = 0
    <outerangle> = 0
  <EndBdry>
  <BeginBdry>
    <BdryName> = "A=0"
    <BdryType> = 0
    <A_0> = 0
    <A_1> = 0
    <A_2> = 0
    <Phi> = 0
    <c0> = 0
    <c0i> = 0
    <c1> = 0
    <c1i> = 0
    <Mu_ssd> = 0
    <Sigma_ssd> = 0
    <innerangle> = 0
    <outerangle> = 0
  <EndBdry>
  <BeginBdry>
    <BdryName> = "A=0"
    <BdryType> = 0
    <A_0> = 0
    <A_1> = 0
    <A_2> = 0
    <Phi> = 0
    <c0> = 0
    <c0i> = 0
    <c1> = 0
    <c1i> = 0
    <Mu_ssd> = 0
    <Sigma_ssd> = 0
    <innerangle> = 0
    <outerangle> = 0
  <EndBdry>
[BlockProps]  = 18
  <BeginBlock>
    <BlockName> = "core_nonlinear"
    <Mu_x> = 1000000
    <Mu_y> = 1000000
    <H_c> = 0
    <H_cAngle> = 0
    <J_re> = 0
    <J_im> = 0
    <Sigma> = 0
    <d_lam> = 0
    <Phi_h> = 0
    <Phi_hx> = 0
    <Phi_hy> = 0
    <LamType> = 0
    <LamFill> = 1
    <NStrands> = 0
    <WireD> = 0
    <BHPoints> = 199
      0	0
      0.039079000000000003	13.736610000000001
      0.085432999999999995	22.167580999999998
      0.145843	28.654202999999999
      0.29168699999999997	38.227122999999999
      0.43869000000000002	46.692090999999998
      0.499581	50.371392
      0.54630400000000001	53.319980000000001
      0.58569300000000002	55.916927000000001
      0.62039599999999995	58.308456
      0.65176999999999996	60.569777000000002
      0.68062100000000003	62.746074999999998
      0.70747499999999997	64.867418000000001
      0.73269700000000004	66.955392000000003
      0.756552	69.026450999999994
      0.77924199999999999	71.093793000000005
      0.80092099999999999	73.168475000000001
      0.82171499999999997	75.260131000000001
      0.841723	77.377446000000006
      0.86102800000000002	79.528493999999995
      0.87970000000000004	81.720985999999996
      0.89779699999999996	83.962458999999996
      0.91536899999999999	86.260429999999999
      0.93245900000000004	88.622530999999995
      0.94910499999999998	91.056617000000003
      0.96533999999999998	93.570884000000007
      0.98119299999999998	96.173969
      0.99668999999999996	98.875055000000003
      1.0118529999999999	101.683984
      1.0267029999999999	104.611373
      1.0412589999999999	107.66874199999999
      1.0555380000000001	110.868651
      1.069555	114.224859
      1.083324	117.752498
      1.096857	121.468267
      1.110166	125.390665
      1.1232629999999999	129.54023799999999
      1.1361559999999999	133.93988100000001
      1.1488560000000001	138.615171
      1.16137	143.59475399999999
      1.1737059999999999	148.91079199999999
      1.185873	154.59947399999999
      1.1978759999999999	160.70160200000001
      1.209722	167.263273
      1.221417	174.336645
      1.2329669999999999	181.980829
      1.2443770000000001	190.262901
      1.255652	199.25904199999999
      1.266796	209.05585099999999
      1.2778149999999999	219.75180599999999
      1.2887109999999999	231.458923
      1.29949	244.304618
      1.310155	258.43380100000002
      1.3207100000000001	274.011259
      1.3311569999999999	291.22436499999998
      1.3414999999999999	310.28624000000002
      1.351742	331.43947100000003
      1.3618870000000001	354.96058099999999
      1.371936	381.16543100000001
      1.3818919999999999	410.415772
      1.3917580000000001	443.12704600000001
      1.401537	479.777378
      1.41123	520.91731100000004
      1.4208400000000001	567.17929600000002
      1.430369	619.28506900000002
      1.439819	678.04803000000004
      1.449192	744.36656100000005
      1.4584889999999999	819.20345399999997
      1.467713	903.54691700000001
      1.4768650000000001	998.35103600000002
      1.4859469999999999	1104.458879
      1.4949600000000001	1222.5189049999999
      1.5039070000000001	1352.912335
      1.512788	1495.7109640000001
      1.521604	1650.678658
      1.5303580000000001	1817.316885
      1.5390509999999999	1994.9414509999999
      1.5476829999999999	2182.7707089999999
      1.556257	2380.0069920000001
      1.5647720000000001	2585.8999650000001
      1.573231	2799.7884509999999
      1.5816349999999999	3021.1228719999999
      1.5899840000000001	3249.4730650000001
      1.5982799999999999	3484.5265169999998
      1.6065240000000001	3726.0812449999999
      1.614716	3974.0363299999999
      1.6228579999999999	4228.3820370000003
      1.6309499999999999	4489.1906259999996
      1.6389940000000001	4756.6084229999997
      1.64699	5030.8493429999999
      1.6549389999999999	5312.1899089999997
      1.6628419999999999	5600.9656750000004
      1.6707000000000001	5897.5689410000005
      1.6785129999999999	6202.4476530000002
      1.6862820000000001	6516.1053579999998
      1.694008	6839.1021369999999
      1.701692	7172.0564450000002
      1.709335	7515.6478010000001
      1.716936	7870.6203020000003
      1.7244969999999999	8237.7869580000006
      1.732019	8618.034834
      1.739501	9012.3310330000004
      1.746945	9421.7295369999993
      1.754351	9847.3789460000007
      1.761719	10290.53116
      1.7690509999999999	10752.55104
      1.7763469999999999	11234.92712
      1.7836069999999999	11739.28335
      1.790832	12267.391970000001
      1.798022	12821.187459999999
      1.8051779999999999	13402.781590000001
      1.8123	14014.479369999999
      1.8193889999999999	14658.795959999999
      1.826446	15338.47409
      1.8334699999999999	16056.501759999999
      1.840462	16816.129679999998
      1.847423	17620.887709999999
      1.8543529999999999	18474.599310000001
      1.8612519999999999	19381.392940000002
      1.8681209999999999	20345.70853
      1.87496	21372.29739
      1.8817699999999999	22466.213070000002
      1.8885510000000001	23632.790639999999
      1.895303	24877.611580000001
      1.9020269999999999	26206.451389999998
      1.9087229999999999	27625.207470000001
      1.9153910000000001	29139.80544
      1.922032	30756.08324
      1.9286460000000001	32479.654460000002
      1.935233	34315.754300000001
      1.941794	36269.07458
      1.948329	38343.59663
      1.954839	40542.433349999999
      1.9613229999999999	42867.692490000001
      1.9677819999999999	45320.373370000001
      1.974216	47900.306669999998
      1.980626	50606.143709999997
      1.9870110000000001	53435.396540000002
      1.9933719999999999	56384.52549
      1.9997100000000001	59449.06611
      2.0060250000000002	62623.784290000003
      2.0123160000000002	65902.847210000007
      2.0185840000000002	69279.997619999995
      2.0248300000000001	72748.720960000006
      2.031053	76302.397089999999
      2.0372539999999999	79934.431460000007
      2.0434329999999998	83638.363089999999
      2.0495899999999998	87407.94889
      2.0557259999999999	91237.226009999998
      2.0618400000000001	95120.554130000004
      2.0679340000000002	99052.641109999997
      2.0740059999999998	103028.5548
      2.0800589999999999	107043.72380000001
      2.08609	111093.931
      2.0921020000000001	115175.2997
      2.098093	119284.27770000001
      2.1040649999999999	123417.6173
      2.110017	127572.35490000001
      2.1159490000000001	131745.79019999999
      2.1218629999999998	135935.46539999999
      2.1277569999999999	140139.14509999999
      2.133632	144354.7971
      2.1394890000000002	148580.57490000001
      2.145327	152814.80050000001
      2.1511469999999999	157055.94930000001
      2.156949	161302.63589999999
      2.1627329999999998	165553.6012
      2.1684990000000002	169807.7003
      2.1742469999999998	174063.89240000001
      2.1799780000000002	178321.23050000001
      2.1856909999999998	182578.8529
      2.1913870000000002	186835.97519999999
      2.1970670000000001	191091.88320000001
      2.2027290000000002	195345.9264
      2.2083750000000002	199597.5122
      2.2140040000000001	203846.10029999999
      2.2196159999999998	208091.19839999999
      2.2252130000000001	212332.3579
      2.2307929999999998	216569.16949999999
      2.2363569999999999	220801.26029999999
      2.241905	225028.29019999999
      2.2474379999999998	229249.94930000001
      2.252955	233465.9552
      2.2584559999999998	237676.05069999999
      2.2639420000000001	241880.00150000001
      2.2694130000000001	246077.59450000001
      2.2748689999999998	250268.63589999999
      2.2803100000000001	254452.9497
      2.285736	258630.37609999999
      2.291147	262800.77039999998
      2.2965439999999999	266964.00140000001
      2.3019259999999999	271119.9509
      2.3072940000000002	275268.51199999999
      2.3126470000000001	279409.58889999997
      2.317987	283543.09529999999
      2.323312	287668.95429999998
      2.328624	291787.09749999997
      2.3339210000000001	295897.46389999997
      2.3392050000000002	300000
  <EndBlock>
  <BeginBlock>
    <BlockName> = "copper"
    <Mu_x> = 1
    <Mu_y> = 1
    <H_c> = 0
    <H_cAngle> = 0
    <J_re> = 0
    <J_im> = 0
    <Sigma> = 58
    <d_lam> = 0
    <Phi_h> = 0
    <Phi_hx> = 0
    <Phi_hy> = 0
    <LamType> = 0
    <LamFill> = 1
    <NStrands> = 0
    <WireD> = 0
    <BHPoints> = 0
  <EndBlock>
  <BeginBlock>
    <BlockName> = "air"
    <Mu_x> = 1
    <Mu_y> = 1
    <H_c> = 0
    <H_cAngle> = 0
    <J_re> = 0
    <J_im> = 0
    <Sigma> = 0
    <d_lam> = 0
    <Phi_h> = 0
    <Phi_hx> = 0
    <Phi_hy> = 0
    <LamType> = 0
    <LamFill> = 1
    <NStrands> = 0
    <WireD> = 0
    <BHPoints> = 0
  <EndBlock>
  <BeginBlock>
    <BlockName> = "core_linear"
    <Mu_x> = 1000
    <Mu_y> = 1000
    <H_c> = 0
    <H_cAngle> = 0
    <J_re> = 0
    <J_im> = 0
    <Sigma> = 0
    <d_lam> = 0
    <Phi_h> = 0
    <Phi_hx> = 0
    <Phi_hy> = 0
    <LamType> = 0
    <LamFill> = 1
    <NStrands> = 0
    <WireD> = 0
    <BHPoints> = 0
  <EndBlock>
  <BeginBlock>
    <BlockName> = "u1"
    <Mu_x> = 2.6498996896116669
    <Mu_y> = 2.6498996896116669
    <H_c> = 0
    <H_cAngle> = 0
    <J_re> = 0
    <J_im> = 0
    <Sigma> = 0
    <d_lam> = 0
    <Phi_h> = 0
    <Phi_hx> = 0
    <Phi_hy> = 0
    <LamType> = 0
    <LamFill> = 1
    <NStrands> = 0
    <WireD> = 0
    <BHPoints> = 0
  <EndBlock>
  <BeginBlock>
    <BlockName> = "u2"
    <Mu_x> = 0.12953316809300527
    <Mu_y> = 0.12953316809300527
    <H_c> = 0
    <H_cAngle> = 0
    <J_re> = 0
    <J_im> = 0
    <Sigma> = 0
    <d_lam> = 0
    <Phi_h> = 0
    <Phi_hx> = 0
    <Phi_hy> = 0
    <LamType> = 0
    <LamFill> = 1
    <NStrands> = 0
    <WireD> = 0
    <BHPoints> = 0
  <EndBlock>
  <BeginBlock>
    <BlockName> = "u3"
    <Mu_x> = 14.398967120915913
    <Mu_y> = 14.398967120915913
    <H_c> = 0
    <H_cAngle> = 0
    <J_re> = 0
    <J_im> = 0
    <Sigma> = 0
    <d_lam> = 0
    <Phi_h> = 0
    <Phi_hx> = 0
    <Phi_hy> = 0
    <LamType> = 0
    <LamFill> = 1
    <NStrands> = 0
    <WireD> = 0
    <BHPoints> = 0
  <EndBlock>
  <BeginBlock>
    <BlockName> = "u4"
    <Mu_x> = 0.042882574356338271
    <Mu_y> = 0.042882574356338271
    <H_c> = 0
    <H_cAngle> = 0
    <J_re> = 0
    <J_im> = 0
    <Sigma> = 0
    <d_lam> = 0
    <Phi_h> = 0
    <Phi_hx> = 0
    <Phi_hy> = 0
    <LamType> = 0
    <LamFill> = 1
    <NStrands> = 0
    <WireD> = 0
    <BHPoints> = 0
  <EndBlock>
  <BeginBlock>
    <BlockName> = "u5"
    <Mu_x> = 37.197476986533054
    <Mu_y> = 37.197476986533054
    <H_c> = 0
    <H_cAngle> = 0
    <J_re> = 0
    <J_im> = 0
    <Sigma> = 0
    <d_lam> = 0
    <Phi_h> = 0
    <Phi_hx> = 0
    <Phi_hy> = 0
    <LamType> = 0
    <LamFill> = 1
    <NStrands> = 0
    <WireD> = 0
    <BHPoints> = 0
  <EndBlock>
  <BeginBlock>
    <BlockName> = "u6"
    <Mu_x> = 0.015664246064106369
    <Mu_y> = 0.015664246064106369
    <H_c> = 0
    <H_cAngle> = 0
    <J_re> = 0
    <J_im> = 0
    <Sigma> = 0
    <d_lam> = 0
    <Phi_h> = 0
    <Phi_hx> = 0
    <Phi_hy> = 0
    <LamType> = 0
    <LamFill> = 1
    <NStrands> = 0
    <WireD> = 0
    <BHPoints> = 0
  <EndBlock>
  <BeginBlock>
    <BlockName> = "u7"
    <Mu_x> = 142.03015659052124
    <Mu_y> = 142.03015659052124
    <H_c> = 0
    <H_cAngle> = 0
    <J_re> = 0
    <J_im> = 0
    <Sigma> = 0
    <d_lam> = 0
    <Phi_h> = 0
    <Phi_hx> = 0
    <Phi_hy> = 0
    <LamType> = 0
    <LamFill> = 1
    <NStrands> = 0
    <WireD> = 0
    <BHPoints> = 0
  <EndBlock>
  <BeginBlock>
    <BlockName> = "u1"
    <Mu_x> = 2.6498996896116669
    <Mu_y> = 2.6498996896116669
    <H_c> = 0
    <H_cAngle> = 0
    <J_re> = 0
    <J_im> = 0
    <Sigma> = 0
    <d_lam> = 0
    <Phi_h> = 0
    <Phi_hx> = 0
    <Phi_hy> = 0
    <LamType> = 0
    <LamFill> = 1
    <NStrands> = 0
    <WireD> = 0
    <BHPoints> = 0
  <EndBlock>
  <BeginBlock>
    <BlockName> = "u2"
    <Mu_x> = 0.12953316809300527
    <Mu_y> = 0.12953316809300527
    <H_c> = 0
    <H_cAngle> = 0
    <J_re> = 0
    <J_im> = 0
    <Sigma> = 0
    <d_lam> = 0
    <Phi_h> = 0
    <Phi_hx> = 0
    <Phi_hy> = 0
    <LamType> = 0
    <LamFill> = 1
    <NStrands> = 0
    <WireD> = 0
    <BHPoints> = 0
  <EndBlock>
  <BeginBlock>
    <BlockName> = "u3"
    <Mu_x> = 14.398967120915913
    <Mu_y> = 14.398967120915913
    <H_c> = 0
    <H_cAngle> = 0
    <J_re> = 0
    <J_im> = 0
    <Sigma> = 0
    <d_lam> = 0
    <Phi_h> = 0
    <Phi_hx> = 0
    <Phi_hy> = 0
    <LamType> = 0
    <LamFill> = 1
    <NStrands> = 0
    <WireD> = 0
    <BHPoints> = 0
  <EndBlock>
  <BeginBlock>
    <BlockName> = "u4"
    <Mu_x> = 0.042882574356338271
    <Mu_y> = 0.042882574356338271
    <H_c> = 0
    <H_cAngle> = 0
    <J_re> = 0
    <J_im> = 0
    <Sigma> = 0
    <d_lam> = 0
    <Phi_h> = 0
    <Phi_hx> = 0
    <Phi_hy> = 0
    <LamType> = 0
    <LamFill> = 1
    <NStrands> = 0
    <WireD> = 0
    <BHPoints> = 0
  <EndBlock>
  <BeginBlock>
    <BlockName> = "u5"
    <Mu_x> = 37.197476986533054
    <Mu_y> = 37.197476986533054
    <H_c> = 0
    <H_cAngle> = 0
    <J_re> = 0
    <J_im> = 0
    <Sigma> = 0
    <d_lam> = 0
    <Phi_h> = 0
    <Phi_hx> = 0
    <Phi_hy> = 0
    <LamType> = 0
    <LamFill> = 1
    <NStrands> = 0
    <WireD> = 0
    <BHPoints> = 0
  <EndBlock>
  <BeginBlock>
    <BlockName> = "u6"
    <Mu_x> = 0.015664246064106369
    <Mu_y> = 0.015664246064106369
    <H_c> = 0
    <H_cAngle> = 0
    <J_re> = 0
    <J_im> = 0
    <Sigma> = 0
    <d_lam> = 0
    <Phi_h> = 0
    <Phi_hx> = 0
    <Phi_hy> = 0
    <LamType> = 0
    <LamFill> = 1
    <NStrands> = 0
    <WireD> = 0
    <BHPoints> = 0
  <EndBlock>
  <BeginBlock>
    <BlockName> = "u7"
    <Mu_x> = 142.03015659052124
    <Mu_y> = 142.03015659052124
    <H_c> = 0
    <H_cAngle> = 0
    <J_re> = 0
    <J_im> = 0
    <Sigma> = 0
    <d_lam> = 0
    <Phi_h> = 0
    <Phi_hx> = 0
    <Phi_hy> = 0
    <LamType> = 0
    <LamFill> = 1
    <NStrands> = 0
    <WireD> = 0
    <BHPoints> = 0
  <EndBlock>
[CircuitProps]  = 2
  <BeginCircuit>
    <CircuitName> = "winding_1"
    <TotalAmps_re> = 10
    <TotalAmps_im> = 0
    <CircuitType> = 1
  <EndCircuit>
  <BeginCircuit>
    <CircuitName> = "winding_2"
    <TotalAmps_re> = 10
    <TotalAmps_im> = 0
    <CircuitType> = 1
  <EndCircuit>
[NumPoints] = 0
[NumSegments] = 0
[NumArcSegments] = 0
[NumHoles] = 0
[NumBlockLabels] = 0
